# ETAN    |m               |Surface Height Anomaly
# PHIBOT  |m^2/s^2         |Bottom Pressure Pot.(p/rho) Anomaly
# atmPload|Pa              |Atmospheric pressure loading
 &diagnostics_list
   frequency(1)  = -25.0,
    fields(1,1)  = 'ETAN    ',
    filename(1)  = 'ETAN',
   frequency(2)  = -25.0,
    fields(1,2)  = 'PHIBOT  ',
    filename(2)  = 'PHIBOT',
   frequency(3)  = -25.0,
    fields(1,3)  = 'atmPload',
    filename(3)  = 'atmPload',
 &
 &DIAG_STATIS_PARMS
 &
